[General]
sim-time-limit = 900s
repeat = 10
