[General]
sim-time-limit = 900s
repeat = 10
seed-set = ${repetition}

**.routingRecorder.enabled = false

**.rtVideoStreaming*.vector-recording = true
**.avgServedBlocksUl*.vector-recording = true
**.averageCqiUl*.vector-recording = true
**.rcvdSinrUl*.vector-recording = true
**.measuredSinrUl*.vector-recording = true
**.servingCell*.vector-recording = true

**.scalar-recording = false
**.vector-recording = false

